Circuit: * C:\Users\alunos\Desktop\Gagabiro\EL84 - Copia\POWER_AMP_IC_rework_el84_transient_sine_transformer.asc

Direct Newton iteration for .op point succeeded.
Note: .fourier statements are only valid with a .tran command.
      No Fourier analysis performed.


SPICE directive ".backanno" has no meaning for netlists.


Date: Tue Nov 12 13:45:33 2024
Total elapsed time: 0.379 seconds.

tnom = 27
temp = 27
method = trap
totiter = 14
traniter = 0
tranpoints = 0
accept = 0
rejected = 0
matrix size = 67
fillins = 71
solver = Normal
Matrix Compiler1:     552 opcodes
Matrix Compiler2: 7.23 KB object code size
