Circuit: * C:\Users\alunos\Desktop\Gagabiro\power_supply\Draft3.asc

.OP point found by inspection.

Date: Fri Nov 01 10:07:21 2024
Total elapsed time: 1.406 seconds.

tnom = 27
temp = 27
method = modified trap
totiter = 407816
traniter = 407816
tranpoints = 200073
accept = 200066
rejected = 7
matrix size = 4
fillins = 1
solver = Normal
Matrix Compiler1: 212 bytes object code size  0.1/0.0/[0.0]
Matrix Compiler2: 296 bytes object code size  0.1/0.1/[0.0]

