Circuit: * C:\Users\alunos\Desktop\Gagabiro\EL84\Draft1.asc

Direct Newton iteration for .op point succeeded.
Heightened Def Con from 302.506 to 302.506

Date: Tue Oct 29 16:51:58 2024
Total elapsed time: 10.557 seconds.

tnom = 27
temp = 27
method = modified trap
totiter = 2906605
traniter = 2906579
tranpoints = 1452679
accept = 872000
rejected = 580680
matrix size = 12
fillins = 0
solver = Normal
Matrix Compiler1: 874 bytes object code size  0.4/0.1/[0.1]
Matrix Compiler2: off  [0.1]/0.1/0.3

