Circuit: * C:\Users\alunos\Desktop\Gagabiro\EL84\POWER_AMP_IC_rework_el84_transient_sine.asc

Direct Newton iteration for .op point succeeded.
N-Period=1
Fourier components of V(out)
DC component:3.38618e-006

Harmonic	Frequency	 Fourier 	Normalized	 Phase  	Normalized
 Number 	  [Hz]   	Component	 Component	[degree]	Phase [deg]
    1   	1.000e+03	1.328e+01	1.000e+00	 -179.34°	    0.00°
    2   	2.000e+03	2.555e-02	1.923e-03	   87.09°	  266.43°
    3   	3.000e+03	4.030e-02	3.033e-03	  172.11°	  351.45°
    4   	4.000e+03	5.134e-03	3.864e-04	   88.20°	  267.54°
    5   	5.000e+03	7.360e-02	5.540e-03	    1.01°	  180.36°
    6   	6.000e+03	1.546e-04	1.164e-05	   95.68°	  275.03°
    7   	7.000e+03	1.298e-03	9.769e-05	  177.66°	  357.00°
    8   	8.000e+03	1.200e-04	9.032e-06	   91.80°	  271.14°
    9   	9.000e+03	2.750e-04	2.070e-05	   19.67°	  199.02°
   10   	1.000e+04	2.316e-05	1.744e-06	   84.30°	  263.64°
Total Harmonic Distortion: 0.661451%(0.661624%)



SPICE directive ".backanno" has no meaning for netlists.
output_power: AVG(i(rload)*v(out))=-11.0308 FROM 0 TO 0.01


Date: Tue Nov 12 09:23:21 2024
Total elapsed time: 9.351 seconds.

tnom = 27
temp = 27
method = modified trap
totiter = 568157
traniter = 568143
tranpoints = 200051
accept = 200044
rejected = 7
matrix size = 68
fillins = 97
solver = Normal
Thread vector: 20.9/12.6[2] 3.5/5.2[1] 3.1/4.9[1] 0.5/1.5[1]  2592/500
Matrix Compiler1: 13.23 KB object code size  3.4/1.7/[1.1]
Matrix Compiler2: 7.96 KB object code size  1.1/1.0/[0.6]

