Circuit: * C:\Users\alunos\Desktop\Gagabiro\EL84\Draft1.asc

Number of points per decade reduced from 1000000 to 5038.
Direct Newton iteration for .op point succeeded.

Date: Wed Dec 11 11:28:02 2024
Total elapsed time: 0.249 seconds.

tnom = 27
temp = 27
method = trap
totiter = 10
traniter = 0
tranpoints = 0
accept = 0
rejected = 0
matrix size = 13
fillins = 0
solver = Normal
Matrix Compiler1:      41 opcodes
Matrix Compiler2: 1021 bytes object code size
